/*--------------------------------*- C++ -*----------------------------------*\
| =========                 |                                                 |
| \\      /  F ield         | OpenFOAM: The Open Source CFD Toolbox           |
|  \\    /   O peration     | Version:  2212                                  |
|   \\  /    A nd           | Website:  www.openfoam.com                      |
|    \\/     M anipulation  |                                                 |
\*---------------------------------------------------------------------------*/
FoamFile
{
    version     2.0;
    format      ascii;
    arch        "LSB;label=32;scalar=64";
    class       volVectorField;
    location    "0";
    object      U;
}
// * * * * * * * * * * * * * * * * * * * * * * * * * * * * * * * * * * * * * //

dimensions      [ 0 1 -1 0 0 0 0 ];

internalField   uniform (3.34563017401507 0 0);

boundaryField
{
    inlet
    {
        type            pressureInletOutletVelocity;
        value           uniform (3.34563017401507 0 0);
    }
    walls
    {
        type            noSlip;
    }
    outlet
    {
        type            freestreamVelocity;
        freestreamValue uniform (3.34563017401507 0 0);
        value           uniform (3.34563017401507 0 0);
    }
}


// ************************************************************************* //
